C40H56
APtclcactv11042110093D 0   0.00000     0.00000
 
 96 95  0  0  0  0  0  0  0  0999 V2000
  -13.8870   -0.3451    0.5511 C   0  0  0  0  0  0  0  0  0  0  0  0
  -12.5375   -1.0158    0.5478 C   0  0  0  0  0  0  0  0  0  0  0  0
  -11.4238   -0.2767    0.5467 C   0  0  0  0  0  0  0  0  0  0  0  0
  -10.1544   -0.9077    0.5436 C   0  0  0  0  0  0  0  0  0  0  0  0
   -9.0219   -0.1561    0.5425 C   0  0  0  0  0  0  0  0  0  0  0  0
   -7.7632   -0.7817    0.5395 C   0  0  0  0  0  0  0  0  0  0  0  0
   -6.6257   -0.0268    0.5383 C   0  0  0  0  0  0  0  0  0  0  0  0
   -5.3708   -0.6506    0.5353 C   0  0  0  0  0  0  0  0  0  0  0  0
   -4.2231    0.1111    0.5342 C   0  0  0  0  0  0  0  0  0  0  0  0
   -2.9699   -0.5119    0.5311 C   0  0  0  0  0  0  0  0  0  0  0  0
   -2.8760   -2.0159    0.5290 C   0  0  0  0  0  0  0  0  0  0  0  0
   -1.8212    0.2505    0.5300 C   0  0  0  0  0  0  0  0  0  0  0  0
   -0.5687   -0.3721    0.5269 C   0  0  0  0  0  0  0  0  0  0  0  0
    0.5803    0.3904    0.5258 C   0  0  0  0  0  0  0  0  0  0  0  0
    1.8329   -0.2322    0.5228 C   0  0  0  0  0  0  0  0  0  0  0  0
    2.9815    0.5301    0.5217 C   0  0  0  0  0  0  0  0  0  0  0  0
    2.8877    2.0342    0.5237 C   0  0  0  0  0  0  0  0  0  0  0  0
    4.2348   -0.0928    0.5186 C   0  0  0  0  0  0  0  0  0  0  0  0
    5.3824    0.6688    0.5175 C   0  0  0  0  0  0  0  0  0  0  0  0
    6.6374    0.0451    0.5144 C   0  0  0  0  0  0  0  0  0  0  0  0
    7.7749    0.8000    0.5133 C   0  0  0  0  0  0  0  0  0  0  0  0
    7.6810    2.3041    0.5154 C   0  0  0  0  0  0  0  0  0  0  0  0
    9.0336    0.1744    0.5102 C   0  0  0  0  0  0  0  0  0  0  0  0
   10.1661    0.9259    0.5091 C   0  0  0  0  0  0  0  0  0  0  0  0
   11.4354    0.2950    0.5060 C   0  0  0  0  0  0  0  0  0  0  0  0
   12.5491    1.0341    0.5050 C   0  0  0  0  0  0  0  0  0  0  0  0
   12.4553    2.5382    0.5070 C   0  0  0  0  0  0  0  0  0  0  0  0
   13.8986    0.3634    0.5017 C   0  0  0  0  0  0  0  0  0  0  0  0
   14.4087    0.2508   -0.9364 C   0  0  0  0  0  0  0  0  0  0  0  0
   15.7582   -0.4200   -0.9397 C   0  0  0  0  0  0  0  0  0  0  0  0
   15.9281   -1.5466   -1.5862 C   0  0  0  0  0  0  0  0  0  0  0  0
   14.7462   -2.2427   -2.2106 C   0  0  0  0  0  0  0  0  0  0  0  0
   17.3053   -2.1466   -1.7055 C   0  0  0  0  0  0  0  0  0  0  0  0
   -7.6694   -2.2858    0.5374 C   0  0  0  0  0  0  0  0  0  0  0  0
  -12.4436   -2.5199    0.5457 C   0  0  0  0  0  0  0  0  0  0  0  0
  -14.4022   -0.2289   -0.8848 C   0  0  0  0  0  0  0  0  0  0  0  0
  -15.7517    0.4419   -0.8815 C   0  0  0  0  0  0  0  0  0  0  0  0
  -15.9682    1.4816   -1.6485 C   0  0  0  0  0  0  0  0  0  0  0  0
  -14.9464    1.8820   -2.6813 C   0  0  0  0  0  0  0  0  0  0  0  0
  -17.2391    2.2774   -1.4979 C   0  0  0  0  0  0  0  0  0  0  0  0
  -14.5859   -0.9379    1.1411 H   0  0  0  0  0  0  0  0  0  0  0  0
  -13.7970    0.6501    0.9865 H   0  0  0  0  0  0  0  0  0  0  0  0
  -11.4910    0.8012    0.5482 H   0  0  0  0  0  0  0  0  0  0  0  0
  -10.0872   -1.9856    0.5421 H   0  0  0  0  0  0  0  0  0  0  0  0
   -9.0892    0.9218    0.5440 H   0  0  0  0  0  0  0  0  0  0  0  0
   -6.6930    1.0511    0.5398 H   0  0  0  0  0  0  0  0  0  0  0  0
   -5.3035   -1.7285    0.5338 H   0  0  0  0  0  0  0  0  0  0  0  0
   -4.2904    1.1890    0.5357 H   0  0  0  0  0  0  0  0  0  0  0  0
   -2.8553   -2.3773   -0.4991 H   0  0  0  0  0  0  0  0  0  0  0  0
   -1.9642   -2.3238    1.0408 H   0  0  0  0  0  0  0  0  0  0  0  0
   -3.7407   -2.4346    1.0439 H   0  0  0  0  0  0  0  0  0  0  0  0
   -1.8885    1.3284    0.5315 H   0  0  0  0  0  0  0  0  0  0  0  0
   -0.5014   -1.4500    0.5255 H   0  0  0  0  0  0  0  0  0  0  0  0
    0.5131    1.4683    0.5273 H   0  0  0  0  0  0  0  0  0  0  0  0
    1.9001   -1.3101    0.5213 H   0  0  0  0  0  0  0  0  0  0  0  0
    2.8669    2.3955    1.5519 H   0  0  0  0  0  0  0  0  0  0  0  0
    3.7524    2.4529    0.0089 H   0  0  0  0  0  0  0  0  0  0  0  0
    1.9759    2.3421    0.0119 H   0  0  0  0  0  0  0  0  0  0  0  0
    4.3021   -1.1707    0.5171 H   0  0  0  0  0  0  0  0  0  0  0  0
    5.3152    1.7467    0.5190 H   0  0  0  0  0  0  0  0  0  0  0  0
    6.7046   -1.0328    0.5129 H   0  0  0  0  0  0  0  0  0  0  0  0
    7.6603    2.6654    1.5435 H   0  0  0  0  0  0  0  0  0  0  0  0
    8.5457    2.7228    0.0005 H   0  0  0  0  0  0  0  0  0  0  0  0
    6.7692    2.6119    0.0036 H   0  0  0  0  0  0  0  0  0  0  0  0
    9.1008   -0.9035    0.5088 H   0  0  0  0  0  0  0  0  0  0  0  0
   10.0988    2.0039    0.5106 H   0  0  0  0  0  0  0  0  0  0  0  0
   11.5027   -0.7829    0.5046 H   0  0  0  0  0  0  0  0  0  0  0  0
   12.4345    2.8995    1.5352 H   0  0  0  0  0  0  0  0  0  0  0  0
   13.3200    2.9569   -0.0078 H   0  0  0  0  0  0  0  0  0  0  0  0
   11.5435    2.8460   -0.0048 H   0  0  0  0  0  0  0  0  0  0  0  0
   14.5997    0.9547    1.0906 H   0  0  0  0  0  0  0  0  0  0  0  0
   13.8102   -0.6329    0.9349 H   0  0  0  0  0  0  0  0  0  0  0  0
   13.7076   -0.3406   -1.5253 H   0  0  0  0  0  0  0  0  0  0  0  0
   14.4971    1.2471   -1.3696 H   0  0  0  0  0  0  0  0  0  0  0  0
   16.5852    0.0281   -0.4091 H   0  0  0  0  0  0  0  0  0  0  0  0
   14.5553   -1.8201   -3.1971 H   0  0  0  0  0  0  0  0  0  0  0  0
   14.9605   -3.3071   -2.3065 H   0  0  0  0  0  0  0  0  0  0  0  0
   13.8681   -2.1042   -1.5799 H   0  0  0  0  0  0  0  0  0  0  0  0
   18.0257   -1.5069   -1.1957 H   0  0  0  0  0  0  0  0  0  0  0  0
   17.3113   -3.1363   -1.2490 H   0  0  0  0  0  0  0  0  0  0  0  0
   17.5751   -2.2304   -2.7583 H   0  0  0  0  0  0  0  0  0  0  0  0
   -7.6486   -2.6471   -0.4908 H   0  0  0  0  0  0  0  0  0  0  0  0
   -6.7576   -2.5936    1.0492 H   0  0  0  0  0  0  0  0  0  0  0  0
   -8.5341   -2.7045    1.0523 H   0  0  0  0  0  0  0  0  0  0  0  0
  -12.4229   -2.8812   -0.4824 H   0  0  0  0  0  0  0  0  0  0  0  0
  -11.5318   -2.8278    1.0575 H   0  0  0  0  0  0  0  0  0  0  0  0
  -13.3083   -2.9386    1.0606 H   0  0  0  0  0  0  0  0  0  0  0  0
  -13.7032    0.3640   -1.4748 H   0  0  0  0  0  0  0  0  0  0  0  0
  -14.4922   -1.2241   -1.3202 H   0  0  0  0  0  0  0  0  0  0  0  0
  -16.5403    0.0654   -0.2469 H   0  0  0  0  0  0  0  0  0  0  0  0
  -14.1512    1.1372   -2.7134 H   0  0  0  0  0  0  0  0  0  0  0  0
  -15.4239    1.9460   -3.6590 H   0  0  0  0  0  0  0  0  0  0  0  0
  -14.5251    2.8523   -2.4184 H   0  0  0  0  0  0  0  0  0  0  0  0
  -17.0846    3.0747   -0.7709 H   0  0  0  0  0  0  0  0  0  0  0  0
  -17.5125    2.7109   -2.4599 H   0  0  0  0  0  0  0  0  0  0  0  0
  -18.0395    1.6222   -1.1540 H   0  0  0  0  0  0  0  0  0  0  0  0
  1  2  1  0  0  0  0
  2  3  2  0  0  0  0
  3  4  1  0  0  0  0
  4  5  2  0  0  0  0
  5  6  1  0  0  0  0
  6  7  2  0  0  0  0
  7  8  1  0  0  0  0
  8  9  2  0  0  0  0
  9 10  1  0  0  0  0
 10 11  1  0  0  0  0
 10 12  2  0  0  0  0
 12 13  1  0  0  0  0
 13 14  2  0  0  0  0
 14 15  1  0  0  0  0
 15 16  2  0  0  0  0
 16 17  1  0  0  0  0
 16 18  1  0  0  0  0
 18 19  2  0  0  0  0
 19 20  1  0  0  0  0
 20 21  2  0  0  0  0
 21 22  1  0  0  0  0
 21 23  1  0  0  0  0
 23 24  2  0  0  0  0
 24 25  1  0  0  0  0
 25 26  2  0  0  0  0
 26 27  1  0  0  0  0
 26 28  1  0  0  0  0
 28 29  1  0  0  0  0
 29 30  1  0  0  0  0
 30 31  2  0  0  0  0
 31 32  1  0  0  0  0
 31 33  1  0  0  0  0
  6 34  1  0  0  0  0
  2 35  1  0  0  0  0
  1 36  1  0  0  0  0
 36 37  1  0  0  0  0
 37 38  2  0  0  0  0
 38 39  1  0  0  0  0
 38 40  1  0  0  0  0
  1 41  1  0  0  0  0
  1 42  1  0  0  0  0
  3 43  1  0  0  0  0
  4 44  1  0  0  0  0
  5 45  1  0  0  0  0
  7 46  1  0  0  0  0
  8 47  1  0  0  0  0
  9 48  1  0  0  0  0
 11 49  1  0  0  0  0
 11 50  1  0  0  0  0
 11 51  1  0  0  0  0
 12 52  1  0  0  0  0
 13 53  1  0  0  0  0
 14 54  1  0  0  0  0
 15 55  1  0  0  0  0
 17 56  1  0  0  0  0
 17 57  1  0  0  0  0
 17 58  1  0  0  0  0
 18 59  1  0  0  0  0
 19 60  1  0  0  0  0
 20 61  1  0  0  0  0
 22 62  1  0  0  0  0
 22 63  1  0  0  0  0
 22 64  1  0  0  0  0
 23 65  1  0  0  0  0
 24 66  1  0  0  0  0
 25 67  1  0  0  0  0
 27 68  1  0  0  0  0
 27 69  1  0  0  0  0
 27 70  1  0  0  0  0
 28 71  1  0  0  0  0
 28 72  1  0  0  0  0
 29 73  1  0  0  0  0
 29 74  1  0  0  0  0
 30 75  1  0  0  0  0
 32 76  1  0  0  0  0
 32 77  1  0  0  0  0
 32 78  1  0  0  0  0
 33 79  1  0  0  0  0
 33 80  1  0  0  0  0
 33 81  1  0  0  0  0
 34 82  1  0  0  0  0
 34 83  1  0  0  0  0
 34 84  1  0  0  0  0
 35 85  1  0  0  0  0
 35 86  1  0  0  0  0
 35 87  1  0  0  0  0
 36 88  1  0  0  0  0
 36 89  1  0  0  0  0
 37 90  1  0  0  0  0
 39 91  1  0  0  0  0
 39 92  1  0  0  0  0
 39 93  1  0  0  0  0
 40 94  1  0  0  0  0
 40 95  1  0  0  0  0
 40 96  1  0  0  0  0
M  END
$$$$
